Version 4
SHEET 1 880 680
WIRE 64 112 -64 112
WIRE 240 112 144 112
WIRE 272 112 240 112
WIRE -64 176 -64 112
WIRE 272 176 272 112
WIRE -64 320 -64 256
WIRE 16 320 -64 320
WIRE 272 320 272 240
WIRE 272 320 16 320
WIRE 16 336 16 320
FLAG 16 336 0
FLAG 240 112 Wy
SYMBOL voltage -64 160 R0
WINDOW 3 24 44 Invisible 2
WINDOW 123 46 73 Left 2
WINDOW 39 0 0 Left 0
WINDOW 0 48 34 Left 2
SYMATTR Value PULSE(0 1 0 1n 1n 0.5ms 1ms)
SYMATTR Value2 AC 1
SYMATTR InstName V1
SYMBOL res 160 96 R90
WINDOW 0 0 56 VBottom 2
WINDOW 3 32 56 VTop 2
SYMATTR InstName R1
SYMATTR Value 1000
SYMBOL cap 256 176 R0
SYMATTR InstName C1
SYMATTR Value 100nF
TEXT -72 424 Left 2 !;ac dec 101 0.1 100MEG
TEXT 288 432 Left 2 !.tran 1.5ms
